[TITLE]


Exported by WaterDesk 5.0.0

[JUNCTIONS]
;ID                 Elev            Demand          Pattern         
 S00145-11SE14B     5.340311        0                                   ;
 S00002-11SE14C     5.881317        0                                   ;
 S01097-11SE19A     43.649142       0                                   ;
 S00027-11SE14A     5.386212        0                                   ;
 S00036-11SE14C     7.449674        0                                   ;
 S01080-11SE19B     3.853642        0                                   ;
 S01095-11SE19B     3.859143        0                                   ;
 S00103-11SE19A     21.69477        0                                   ;
 S00035-11SE20A     4.911008        0                                   ;
 S01125-11SE19B     3.9             0                                   ;
 S01142-11SE19A     8.249862        0                                   ;
 S01161-11SE19A     7.211413        0                                   ;
 S00061-11SE20A     4.325434        0                                   ;
 S00063-11SE20A     4.325434        0                                   ;
 S00321-11SE19B     3.977825        0                                   ;
 S00457-11SE20A     5.680056        0                                   ;
 S01195-11SE19A     5.364159        0                                   ;
 S00458-11SE20A     5.680056        0                                   ;
 S01259-11SE19A     5.181972        0                                   ;
 S00214-11SE20A     5.704885        0                                   ;
 S00224-11SE20A     8.061189        0                                   ;
 S01114-11SE19A     5.288011        0                                   ;
 S00236-11SE20A     5.373444        0                                   ;
 S00014-11SE19C     8.907995        0                                   ;
 S00003-11SE19D     22.50944        0                                   ;
 S00019-11SE20C     6.056536        0                                   ;
 S00115-11SE19A     22.967188       0                                   ;
 S00371-11SE19C     25.870403       0                                   ;
 S00396-11SE19C     10.694914       0                                   ;
 S00039-11SE20C     8.335208        0                                   ;
 S00134-11SE14B     5.193237        0                                   ;
 S00166-11SE19C     69.508852       0                                   ;
 S00987-11SE19B     4.233597        0                                   ;
 S00034-11SE14C     8.556176        0                                   ;
 S01376-11SE19A     5.41569         0                                   ;
 S01182-11SE19A     6.66617         0                                   ;
 S00105-11SE19C     12.90374        0                                   ;
 S00321-11SE14D     4.369854        0                                   ;
 S00992-11SE19B     4.17067         0                                   ;
 S01113-11SE19A     5.489632        0                                   ;
 S00046-11SE09C     11.811218       0                                   ;
 S01375-11SE19A     7.66185         0                                   ;
 S00324-11SE14D     3.956032        0                                   ;
 S01092-11SE19A     20.577046       0                                   ;
 S00170-11SE19C     69.508852       0                                   ;
 S00275-11SE19B     3.906666        0                                   ;
 S01501-11SE19A     18.654394       0                                   ;
 S01504-11SE19A     22.063318       0                                   ;
 S01546-11SE19A     6.386479        0                                   ;
 S01603-11SE19A     6.202158        0                                   ;
 S01604-11SE19A     5.997326        0                                   ;
 S00579-11SE20A     5.86268         0                                   ;
 S01740-11SE19A     7.635908        0                                   ;
 S01622-11SE19B     4.149049        0                                   ;
 S01623-11SE19B     4.158353        0                                   ;
 S01625-11SE19B     4.192242        0                                   ;
 S01628-11SE19B     3.892669        0                                   ;
 S01672-11SE19B     4.122416        0                                   ;
 S01776-11SE19A     7.254643        0                                   ;
 S00525-11SE19C     26.824376       0                                   ;
 S00586-11SE19C     33.487174       0                                   ;
 S01823-11SE19B     4.86142         0                                   ;
 S01842-11SE19B     3.910192        0                                   ;
 S01869-11SE19B     5.260098        0                                   ;
 S01977-11SE19A     5.589666        0                                   ;
 S01946-11SE19B     4.056868        0                                   ;
 S01951-11SE19B     4.056868        0                                   ;
 S00650-11SE19C     28.413768       0                                   ;
 S00655-11SE19C     28.413768       0                                   ;
 S02058-11SE19B     4.9             0                                   ;
 S02027-11SE19A     54.049524       0                                   ;
 S02029-11SE19A     36.674909       0                                   ;
 S02041-11SE19A     5.901319        0                                   ;
 S00121-11SE14C     52.867549       0                                   ;
 S00532-11SE14D     4.50514         0                                   ;
 S00533-11SE14D     4.811123        0                                   ;
 S02082-11SE19A     28.986497811236 0                                   ;
 S00734-11SE20A     5.086633819845  0                                   ;
 S00736-11SE20A     5.312720160336  0                                   ;
 S00738-11SE20A     5.417039340614  0                                   ;
 S00739-11SE20A     5.419484007381  0                                   ;
 S00741-11SE20A     5.578050881456  0                                   ;
 S00742-11SE20A     5.585538150504  0                                   ;
 S00743-11SE20A     5.527614893037  0                                   ;
 S00744-11SE20A     5.511318855564  0                                   ;
 S00745-11SE20A     5.369837130106  0                                   ;
 S00746-11SE20A     5.363056941997  0                                   ;
 S00747-11SE20A     5.290310186844  0                                   ;
 S00748-11SE20A     5.282525268771  0                                   ;
 S00751-11SE20A     5.139163519009  0                                   ;
 S00754-11SE20A     4.732052955299  0                                   ;
 S02087-11SE19B     4.536573        0                                   ;
 S02128-11SE19B     4.643770234523  0                                   ;
 S02132-11SE19B     4.117621        0                                   ;
 S02135-11SE19B     4.153816        0                                   ;
 S02137-11SE19B     4.153816        0                                   ;
 S02139-11SE19B     4.501766        0                                   ;
 S02207-11SE19B     5.097616700313  0                                   ;
 S00069-11SE14A     4.650952        0                                   ;
 S00122-11SE14B     4.465268        0                                   ;
 S00018-11SE14C     5.66            0                                   ;
 S00055-11SE14D     5.147428        0                                   ;
 S00065-11SE14D     4.471238        0                                   ;
 S00089-11SE14D     6.560842        0                                   ;
 S00332-11SE14D     3.892915        0                                   ;
 S00238-11SE14D     3.938698        0                                   ;
 S00008-11SE19A     53.09312        0                                   ;
 S01074-11SE19B     3.746153        0                                   ;
 S01086-11SE19B     3.663407        0                                   ;
 S00028-11SE20A     4.372132        0                                   ;
 S01144-11SE19A     11.523426       0                                   ;
 S00989-11SE19B     4.273167        0                                   ;
 S00252-11SE19B     3.69            0                                   ;
 S00051-11SE20A     4.228218        0                                   ;
 S00296-11SE19B     3.854963        0                                   ;
 S01227-11SE19A     7.57453         0                                   ;
 S01307-11SE19A     5.529469        0                                   ;
 S01263-11SE19A     5.128119        0                                   ;
 S00341-11SE19A     22.063318       0                                   ;
 S00422-11SE19B     4.77            0                                   ;
 S00361-11SE19A     6.219414        0                                   ;
 S00171-11SE20A     5.612541        0                                   ;
 S00375-11SE19A     6.497406        0                                   ;
 S00192-11SE20A     5.477249        0                                   ;
 S00400-11SE19A     22.505155       0                                   ;
 S00425-11SE19A     9.992492        0                                   ;
 S00392-11SE19C     20.686831       0                                   ;
 S00136-11SE19C     39.1            0                                   ;
 S01062-11SE19B     4.127066        0                                   ;
 S00521-11SE20A     6.208897        0                                   ;
 S01282-11SE19A     5.7             0                                   ;
 S01178-11SE19A     6.66617         0                                   ;
 S00090-11SE14B     4.817743        0                                   ;
 S00280-11SE19A     7.635908        0                                   ;
 S00026-11SE14D     7.128948        0                                   ;
 S00512-11SE20A     5.345526        0                                   ;
 S00295-11SE14D     4.081945        0                                   ;
 S00401-11SE19C     9.316706        0                                   ;
 S00409-11SE14D     5.902254        0                                   ;
 S00496-11SE14D     3.88            0                                   ;
 S01578-11SE19B     3.952315        0                                   ;
 S01647-11SE19B     3.928323        0                                   ;
 S01737-11SE19B     6.037525        0                                   ;
 S01827-11SE19A     5.826939        0                                   ;
 S01775-11SE19B     4.723838        0                                   ;
 S01899-11SE19A     20.71649        0                                   ;
 S01808-11SE19B     4.432857        0                                   ;
 S01859-11SE19B     4.640646        0                                   ;
 S01925-11SE19A     26.91           0                                   ;
 S00609-11SE19C     28.20879        0                                   ;
 S01889-11SE19B     4.421734        0                                   ;
 S02036-11SE19B     4.536573        0                                   ;
 S01987-11SE19A     5.49883         0                                   ;
 S00661-11SE19C     14.04985        0                                   ;
 S02025-11SE19A     54.049524       0                                   ;
 S00117-11SE14C     52.867549       0                                   ;
 S00531-11SE14D     4.50514         0                                   ;
 S02099-11SE19B     4.290779906456  0                                   ;
 S02114-11SE19A     6.055354096054  0                                   ;
 S01297-11SE19A     5.239529        0                                   ;
 S00151-11SE20A     5.939982        0                                   ;
 S00210-11SE20A     5.972059        0                                   ;
 S00070-11SE20C     5.381724        0                                   ;
 S02026-11SE19A     48.900501       0                                   ;
 S00039-11SE14B     5.212856        0                                   ;
 S00042-11SE14B     5.120581        0                                   ;
 S00059-11SE14A     5.185108        0                                   ;
 S00044-11SE14B     4.972926        0                                   ;
 S00049-11SE14B     5.106899        0                                   ;
 S00064-11SE14A     10.877144       0                                   ;
 S00065-11SE14A     5.154839        0                                   ;
 S00066-11SE14A     4.650952        0                                   ;
 S00050-11SE14B     6.231657        0                                   ;
 S00054-11SE14B     4.893208        0                                   ;
 S00055-11SE14B     4.936839        0                                   ;
 S00061-11SE14B     5.234317        0                                   ;
 S00062-11SE14B     4.657534        0                                   ;
 S00064-11SE14B     5.234317        0                                   ;
 S00074-11SE14A     4.694388        0                                   ;
 S00066-11SE14B     4.747492        0                                   ;
 S00075-11SE14A     5.126524        0                                   ;
 S00071-11SE14B     4.832332        0                                   ;
 S00045-11SE09C     11.811218       0                                   ;
 S00166-11SE09C     5.025847        0                                   ;
 S00167-11SE09C     5.025847        0                                   ;
 S00001-11SE09D     5.311007        0                                   ;
 S00006-11SE14A     7.902418        0                                   ;
 S00003-11SE14B     4.851101        0                                   ;
 S00008-11SE14A     4.867557        0                                   ;
 S00007-11SE14B     4.759144        0                                   ;
 S00103-11SE14A     4.614659        0                                   ;
 S00017-11SE14A     4.824996        0                                   ;
 S00019-11SE14A     4.565185        0                                   ;
 S00012-11SE14B     4.795144        0                                   ;
 S00023-11SE14A     7.437367        0                                   ;
 S00017-11SE14B     4.795144        0                                   ;
 S00024-11SE14A     5.386212        0                                   ;
 S00020-11SE14B     4.631706        0                                   ;
 S00029-11SE14A     5.338209        0                                   ;
 S00031-11SE14A     4.751638        0                                   ;
 S00034-11SE14A     4.556395        0                                   ;
 S00025-11SE14B     4.294304        0                                   ;
 S00026-11SE14B     5.659452        0                                   ;
 S00038-11SE14A     4.561869        0                                   ;
 S00029-11SE14B     4.786758        0                                   ;
 S00043-11SE14A     4.605593        0                                   ;
 S00045-11SE14A     5.067828        0                                   ;
 S00048-11SE14A     5.067828        0                                   ;
 S00049-11SE14A     5.219165        0                                   ;
 S00032-11SE14B     4.841498        0                                   ;
 S00051-11SE14A     5.219165        0                                   ;
 S00053-11SE14A     4.355847        0                                   ;
 S00055-11SE14A     4.922103        0                                   ;
 S00056-11SE14A     5.240997        0                                   ;
 S00036-11SE14B     6.503493        0                                   ;
 S00011-11SE19A     53.09312        0                                   ;
 S00012-11SE19A     52.791017       0                                   ;
 S01076-11SE19A     4.239484        0                                   ;
 S01096-11SE19A     43.649142       0                                   ;
 S01140-11SE19B     4.634228        0                                   ;
 S01137-11SE19B     4.634228        0                                   ;
 S01095-11SE19A     43.649142       0                                   ;
 S01139-11SE19B     4.489217        0                                   ;
 S00017-11SE19A     5.391698        0                                   ;
 S01136-11SE19B     4.489217        0                                   ;
 S01130-11SE19B     4.436676        0                                   ;
 S00093-11SE19B     3.920214        0                                   ;
 S00029-11SE19A     5.126071        0                                   ;
 S00095-11SE19B     3.920214        0                                   ;
 S00970-11SE19B     4.30419         0                                   ;
 S00032-11SE19A     5.126071        0                                   ;
 S00971-11SE19B     4.30419         0                                   ;
 S01081-11SE19B     3.666667        0                                   ;
 S01106-11SE19B     3.844379        0                                   ;
 S00965-11SE19B     4.260224        0                                   ;
 S01109-11SE19B     3.844379        0                                   ;
 S01078-11SE19B     3.666222        0                                   ;
 S00108-11SE19B     3.917596        0                                   ;
 S00038-11SE19A     4.978682        0                                   ;
 S00040-11SE19A     4.78277         0                                   ;
 S00112-11SE19B     3.917596        0                                   ;
 S00046-11SE19A     4.799879        0                                   ;
 S00047-11SE19A     4.879842        0                                   ;
 S00117-11SE19B     4.196437        0                                   ;
 S00057-11SE14A     5.235107        0                                   ;
 S00977-11SE19B     4.789732        0                                   ;
 S00976-11SE19B     4.789732        0                                   ;
 S01006-11SE19B     3.905531        0                                   ;
 S00959-11SE19B     4.186109        0                                   ;
 S01009-11SE19B     4.273398        0                                   ;
 S00957-11SE19B     3.907844        0                                   ;
 S00048-11SE19B     3.965388        0                                   ;
 S01061-11SE19B     4.110769        0                                   ;
 S00061-11SE19B     3.965388        0                                   ;
 S00007-11SE19A     53.09312        0                                   ;
 S00034-11SE19A     5.126071        0                                   ;
 S01059-11SE19B     3.780255        0                                   ;
 S01188-11SE19A     6.285212        0                                   ;
 S00306-11SE19B     4.234182        0                                   ;
 S01281-11SE19A     5.471937        0                                   ;
 S00451-11SE19B     4.9             0                                   ;
 S00102-11SE14A     11.155466       0                                   ;
 S00232-11SE14D     3.841077        0                                   ;
 S01113-11SE19B     3.827845        0                                   ;
 S01114-11SE19B     3.827845        0                                   ;
 S00059-11SE19A     23.830968       0                                   ;
 S00142-11SE19B     3.895611        0                                   ;
 S00068-11SE19A     25.97647        0                                   ;
 S00148-11SE19B     3.87979         0                                   ;
 S00073-11SE19A     25.216027       0                                   ;
 S00165-11SE19B     3.903947        0                                   ;
 S00169-11SE19B     3.82434         0                                   ;
 S01102-11SE19B     3.809535        0                                   ;
 S01104-11SE19B     3.783636        0                                   ;
 S01094-11SE19B     3.859143        0                                   ;
 S01101-11SE19B     3.783636        0                                   ;
 S00095-11SE19A     24.628666       0                                   ;
 S00098-11SE19A     29.571706       0                                   ;
 S01096-11SE19B     3.883235        0                                   ;
 S00031-11SE20A     4.372132        0                                   ;
 S00102-11SE19A     5.621596        0                                   ;
 S00107-11SE19A     22.306326       0                                   ;
 S00109-11SE19A     5.695038        0                                   ;
 S00111-11SE19A     5.695038        0                                   ;
 S01069-11SE19B     2.902272        0                                   ;
 S01066-11SE19B     2.902272        0                                   ;
 S00209-11SE19B     4.227079        0                                   ;
 S00033-11SE20A     4.340109        0                                   ;
 S00214-11SE19B     3.765423        0                                   ;
 S00118-11SE19A     17.68962        0                                   ;
 S00122-11SE19A     19.020992       0                                   ;
 S00240-11SE19B     3.875349        0                                   ;
 S00242-11SE19B     3.875349        0                                   ;
 S00125-11SE19A     15.416247       0                                   ;
 S00043-11SE20A     4.43366         0                                   ;
 S01124-11SE19B     3.9             0                                   ;
 S00988-11SE19B     4.238721        0                                   ;
 S00044-11SE20A     4.4             0                                   ;
 S00256-11SE19B     3.594631        0                                   ;
 S00420-11SE20A     4.517639        0                                   ;
 S00258-11SE19B     3.231596        0                                   ;
 S01143-11SE19A     10.414969       0                                   ;
 S01139-11SE19A     9.624933        0                                   ;
 S01165-11SE19A     7.675943        0                                   ;
 S01141-11SE19A     7.844527        0                                   ;
 S01147-11SE19A     9.359322        0                                   ;
 S01138-11SE19A     7.844527        0                                   ;
 S01150-11SE19A     9.399509        0                                   ;
 S00053-11SE20A     4.228218        0                                   ;
 S00277-11SE19B     3.906666        0                                   ;
 S00276-11SE19B     3.906666        0                                   ;
 S00054-11SE20A     5.028188        0                                   ;
 S00056-11SE20A     5.028188        0                                   ;
 S01169-11SE19A     6.653629        0                                   ;
 S01168-11SE19A     6.263181        0                                   ;
 S01189-11SE19A     5.729975        0                                   ;
 S01166-11SE19A     6.263181        0                                   ;
 S01180-11SE19A     6.486799        0                                   ;
 S00506-11SE20A     5.241193        0                                   ;
 S01177-11SE19A     6.280466        0                                   ;
 S00505-11SE20A     5.241193        0                                   ;
 S00074-11SE14B     4.599517        0                                   ;
 S00076-11SE14B     3.961419        0                                   ;
 S01160-11SE19A     8.509018        0                                   ;
 S00295-11SE19B     4.187734        0                                   ;
 S00298-11SE19B     4.187734        0                                   ;
 S01233-11SE19A     8.550747        0                                   ;
 S00175-11SE19A     15.432466       0                                   ;
 S01238-11SE19A     7.22642         0                                   ;
 S00307-11SE19B     4.234182        0                                   ;
 S01159-11SE19A     5.717341        0                                   ;
 S01163-11SE19A     5.717341        0                                   ;
 S00312-11SE19B     4.233597        0                                   ;
 S01240-11SE19A     7.224061        0                                   ;
 S01230-11SE19A     7.22642         0                                   ;
 S01231-11SE19A     7.22642         0                                   ;
 S00317-11SE19B     3.977825        0                                   ;
 S00322-11SE19B     4.011002        0                                   ;
 S00326-11SE19B     3.977825        0                                   ;
 S00327-11SE19B     4.221559        0                                   ;
 S00473-11SE20A     5.680056        0                                   ;
 S00508-11SE20A     4.458939        0                                   ;
 S00328-11SE19B     4.177497        0                                   ;
 S01226-11SE19A     7.57453         0                                   ;
 S00451-11SE20A     5.051349        0                                   ;
 S00476-11SE20A     5.680056        0                                   ;
 S00078-11SE20A     5.345526        0                                   ;
 S00331-11SE19B     4.177497        0                                   ;
 S00478-11SE20A     5.680056        0                                   ;
 S01193-11SE19A     5.364159        0                                   ;
 S00333-11SE19B     4.216504        0                                   ;
 S00449-11SE20A     5.02285         0                                   ;
 S00453-11SE20A     5.345526        0                                   ;
 S00511-11SE20A     5.483932        0                                   ;
 S00093-11SE20A     6.02059         0                                   ;
 S00340-11SE19B     4.183654        0                                   ;
 S00341-11SE19B     4.189532        0                                   ;
 S01215-11SE19A     6.478619        0                                   ;
 S01081-11SE19A     19.030015       0                                   ;
 S01078-11SE19A     19.030015       0                                   ;
 S00343-11SE19B     4.199329        0                                   ;
 S01217-11SE19A     6.398115        0                                   ;
 S01198-11SE19A     5.710664        0                                   ;
 S01214-11SE19A     6.398115        0                                   ;
 S01201-11SE19A     5.788894        0                                   ;
 S01224-11SE19A     5.549307        0                                   ;
 S01205-11SE19A     5.919051        0                                   ;
 S01222-11SE19A     5.549307        0                                   ;
 S00100-11SE20A     5.098156        0                                   ;
 S01278-11SE19A     5.209239        0                                   ;
 S01199-11SE19A     5.67019         0                                   ;
 S01274-11SE19A     5.209239        0                                   ;
 S00103-11SE20A     5.285735        0                                   ;
 S00244-11SE19A     9.944092        0                                   ;
 S00368-11SE19B     4.324876        0                                   ;
 S00081-11SE14B     4.464377        0                                   ;
 S00083-11SE14B     4.670882        0                                   ;
 S00079-11SE14A     15.960605       0                                   ;
 S00084-11SE14A     5.083502        0                                   ;
 S00104-11SE20A     5.43965         0                                   ;
 S01303-11SE19A     5.499876        0                                   ;
 S01306-11SE19A     5.499876        0                                   ;
 S01262-11SE19A     5.135199        0                                   ;
 S01292-11SE19A     5.149885        0                                   ;
 S00288-11SE19A     12.200303       0                                   ;
 S00109-11SE20A     6.273562        0                                   ;
 S00111-11SE20A     5.169706        0                                   ;
 S00113-11SE20A     5.169706        0                                   ;
 S01301-11SE19A     5.239529        0                                   ;
 S00115-11SE20A     4.999841        0                                   ;
 S01293-11SE19A     5.239529        0                                   ;
 S00117-11SE20A     4.999841        0                                   ;
 S00492-11SE20A     5.263037        0                                   ;
 S00127-11SE20A     5.263037        0                                   ;
 S00128-11SE20A     4.599814        0                                   ;
 S00495-11SE20A     5.263037        0                                   ;
 S00129-11SE20A     6.271999        0                                   ;
 S00135-11SE20A     6.271999        0                                   ;
 S00136-11SE20A     5.424134        0                                   ;
 S00140-11SE20A     6.271999        0                                   ;
 S00143-11SE20A     5.424134        0                                   ;
 S00326-11SE19A     6.732142        0                                   ;
 S00145-11SE20A     4.871754        0                                   ;