[TITLE]


Exported by WaterDesk 5.0.0

[JUNCTIONS]
;ID                 Elev            Demand          Pattern         
 S00108-11SE14A     4.614659        0                                   ;
 S00015-11SE14A     4.824996        0                                   ;
 S00018-11SE14A     4.824996        0                                   ;
 S00011-11SE14B     4.917917        0                                   ;
 S00020-11SE14A     4.870766        0                                   ;
 S00014-11SE14B     4.917917        0                                   ;
 S00016-11SE14B     4.795144        0                                   ;
 S00025-11SE14A     5.386212        0                                   ;
 S00019-11SE14B     4.631706        0                                   ;
 S00142-11SE14B     5.602875        0                                   ;
 S00145-11SE14B     5.340311        0                                   ;
 S00149-11SE14B     4.48709         0                                   ;
 S00002-11SE14C     5.881317        0                                   ;
 S00004-11SE14C     5.881317        0                                   ;
 S00006-11SE14D     4.551091        0                                   ;
 S00008-11SE14D     5.493778        0                                   ;
 S00228-11SE14D     5.437174        0                                   ;
 S00018-11SE14D     4.353947        0                                   ;
 S00227-11SE14D     5.174913        0                                   ;
 S00031-11SE14D     4.126276        0                                   ;
 S00032-11SE14D     4.126276        0                                   ;
 S00220-11SE14D     4.963834        0                                   ;
 S00280-11SE14D     4.036854        0                                   ;
 S00010-11SE14C     6.31201         0                                   ;
 S00012-11SE14C     6.31201         0                                   ;
 S00281-11SE14D     4.261877        0                                   ;
 S00043-11SE14D     4.261877        0                                   ;
 S00109-11SE14C     5.793618        0                                   ;
 S00015-11SE14C     5.793618        0                                   ;
 S00047-11SE14D     4.02823         0                                   ;
 S00137-11SE14B     4.451881        0                                   ;
 S00223-11SE14D     4.799095        0                                   ;
 S00292-11SE14D     4.126811        0                                   ;
 S00096-11SE14D     5.993591        0                                   ;
 S00006-11SE14B     4.759144        0                                   ;
 S00008-11SE14B     4.759144        0                                   ;
 S00110-11SE14A     4.614659        0                                   ;
 S00051-11SE14D     5.173443        0                                   ;
 S00022-11SE14C     5.66            0                                   ;
 S00023-11SE14C     5.66            0                                   ;
 S00296-11SE14D     4.081945        0                                   ;
 S00297-11SE14D     4.081945        0                                   ;
 S00300-11SE14D     4.069099        0                                   ;
 S00301-11SE14D     3.897764        0                                   ;
 S00306-11SE14D     4.119664        0                                   ;
 S00056-11SE14D     6.668717        0                                   ;
 S00311-11SE14D     4.129597        0                                   ;
 S00026-11SE14C     4.80186         0                                   ;
 S00067-11SE14D     4.471238        0                                   ;
 S00316-11SE14D     4.544864        0                                   ;
 S00029-11SE14C     5.243533        0                                   ;
 S00078-11SE14D     4.657537        0                                   ;
 S00079-11SE14D     6.888104        0                                   ;
 S00083-11SE14D     4.931624        0                                   ;
 S00090-11SE14D     6.560842        0                                   ;
 S01097-11SE19A     43.649142       0                                   ;
 S00104-11SE19A     22.306326       0                                   ;
 S00253-11SE19B     3.69            0                                   ;
 S01156-11SE19A     9.408151        0                                   ;
 S01241-11SE19A     7.22642         0                                   ;
 S01216-11SE19A     6.398115        0                                   ;
 S00079-11SE14B     4.464377        0                                   ;
 S00409-11SE19C     8.011536        0                                   ;
 S00056-11SE20C     6.92059         0                                   ;
 S00027-11SE14A     5.386212        0                                   ;
 S00030-11SE14A     5.571038        0                                   ;
 S00033-11SE14A     4.556395        0                                   ;
 S00024-11SE14B     4.123922        0                                   ;
 S00035-11SE14A     4.546346        0                                   ;
 S00036-11SE14A     4.561869        0                                   ;
 S01141-11SE19B     4.489217        0                                   ;
 S01190-11SE19A     6.285212        0                                   ;
 S00364-11SE19A     6.159899        0                                   ;
 S00320-11SE14D     4.093241        0                                   ;
 S01146-11SE19A     10.414969       0                                   ;
 S00507-11SE20A     5.241193        0                                   ;
 S00522-11SE20A     6.271999        0                                   ;
 S00040-11SE14A     4.561869        0                                   ;
 S00027-11SE14B     4.786758        0                                   ;
 S00028-11SE14B     4.786758        0                                   ;
 S00030-11SE14B     4.786758        0                                   ;
 S00042-11SE14A     4.605593        0                                   ;
 S00036-11SE14C     7.449674        0                                   ;
 S00233-11SE14D     3.841077        0                                   ;
 S00099-11SE14D     3.439446        0                                   ;
 S00330-11SE14D     4.23512         0                                   ;
 S00236-11SE14D     3.846368        0                                   ;
 S00110-11SE14D     4.909359        0                                   ;
 S00333-11SE14D     3.892915        0                                   ;
 S00334-11SE14D     3.892915        0                                   ;
 S00040-11SE14C     6.838689        0                                   ;
 S00240-11SE14D     4.168276        0                                   ;
 S00243-11SE14D     4.168276        0                                   ;
 S00239-11SE14D     3.938698        0                                   ;
 S01151-11SE19B     4.074704        0                                   ;
 S00978-11SE19B     4.789732        0                                   ;
 S00052-11SE14A     5.167693        0                                   ;
 S00033-11SE14B     8.474147        0                                   ;
 S00034-11SE14B     6.503493        0                                   ;
 S00035-11SE14B     6.503493        0                                   ;
 S00037-11SE14B     6.503493        0                                   ;
 S01058-11SE19B     3.848255        0                                   ;
 S01077-11SE19B     3.89462         0                                   ;
 S01057-11SE19B     3.780255        0                                   ;
 S00979-11SE19B     4.150517        0                                   ;
 S01010-11SE19B     4.258068        0                                   ;
 S01005-11SE19B     4.273398        0                                   ;
 S01060-11SE19B     4.110769        0                                   ;
 S00049-11SE19B     3.965388        0                                   ;
 S01063-11SE19B     4.110769        0                                   ;
 S01064-11SE19B     4.110769        0                                   ;
 S00981-11SE19B     4.253134        0                                   ;
 S00010-11SE19A     53.09312        0                                   ;
 S00014-11SE20A     4.588915        0                                   ;
 S00076-11SE19B     4.382436        0                                   ;
 S00017-11SE20A     4.488218        0                                   ;
 S00021-11SE19A     5.391698        0                                   ;
 S01142-11SE19B     4.436676        0                                   ;
 S00018-11SE20A     4.488218        0                                   ;
 S00022-11SE19A     6.069587        0                                   ;
 S00025-11SE19A     6.069587        0                                   ;
 S01065-11SE19B     3.946805        0                                   ;
 S00027-11SE19A     5.40032         0                                   ;
 S00094-11SE19B     3.920214        0                                   ;
 S00030-11SE19A     5.126071        0                                   ;
 S01082-11SE19B     3.746153        0                                   ;
 S00033-11SE19A     5.126071        0                                   ;
 S01083-11SE19B     3.746153        0                                   ;
 S01108-11SE19B     3.844379        0                                   ;
 S00039-11SE19A     4.78277         0                                   ;
 S01080-11SE19B     3.853642        0                                   ;
 S00048-11SE19A     4.879842        0                                   ;
 S00049-11SE19A     4.879842        0                                   ;
 S00040-11SE14B     5.120581        0                                   ;
 S00043-11SE14B     5.212856        0                                   ;
 S00061-11SE14A     4.678657        0                                   ;
 S00045-11SE14B     5.103304        0                                   ;
 S01115-11SE19B     3.827845        0                                   ;
 S00139-11SE19B     3.957923        0                                   ;
 S00143-11SE19B     3.895611        0                                   ;
 S00064-11SE19A     27.449079       0                                   ;
 S00144-11SE19B     3.895611        0                                   ;
 S01093-11SE19B     2.887497        0                                   ;
 S01092-11SE19B     3.663407        0                                   ;
 S01091-11SE19B     2.912441        0                                   ;
 S00074-11SE19A     26.68302        0                                   ;
 S00075-11SE19A     25.045302       0                                   ;
 S00078-11SE19A     24.496013       0                                   ;
 S00093-11SE19A     25.589845       0                                   ;
 S01095-11SE19B     3.859143        0                                   ;
 S00984-11SE19B     4.565571        0                                   ;
 S00100-11SE19A     21.767584       0                                   ;
 S01088-11SE19B     3.937562        0                                   ;
 S00030-11SE20A     4.372132        0                                   ;
 S00189-11SE19B     4.122718        0                                   ;
 S00103-11SE19A     21.69477        0                                   ;
 S00191-11SE19B     4.122718        0                                   ;
 S01086-11SE19A     5.687018        0                                   ;
 S00108-11SE19A     21.69477        0                                   ;
 S01123-11SE19B     3.865679        0                                   ;
 S01070-11SE19B     2.902272        0                                   ;
 S01099-11SE19B     6.037525        0                                   ;
 S01068-11SE19B     2.902272        0                                   ;
 S00032-11SE20A     4.340109        0                                   ;
 S00034-11SE20A     4.393949        0                                   ;
 S00035-11SE20A     4.911008        0                                   ;
 S00211-11SE19B     4.227079        0                                   ;
 S00038-11SE20A     4.24002         0                                   ;
 S00220-11SE19B     3.989607        0                                   ;
 S00119-11SE19A     17.68962        0                                   ;
 S00040-11SE20A     4.535046        0                                   ;
 S01125-11SE19B     3.9             0                                   ;
 S01145-11SE19A     11.523426       0                                   ;
 S00990-11SE19B     4.238721        0                                   ;
 S00991-11SE19B     4.273167        0                                   ;
 S00257-11SE19B     3.69            0                                   ;
 S01128-11SE19B     3.9             0                                   ;
 S00421-11SE20A     4.517639        0                                   ;
 S00048-11SE20A     4.596879        0                                   ;
 S00048-11SE14B     5.103304        0                                   ;
 S00067-11SE14A     4.650952        0                                   ;
 S00052-11SE14B     4.893208        0                                   ;
 S00057-11SE14B     4.936839        0                                   ;
 S00058-11SE14B     4.893208        0                                   ;
 S00060-11SE14B     4.936839        0                                   ;
 S00262-11SE19B     3.9             0                                   ;
 S01151-11SE19A     9.1064          0                                   ;
 S01140-11SE19A     7.844527        0                                   ;
 S01175-11SE19A     7.261611        0                                   ;
 S01142-11SE19A     8.249862        0                                   ;
 S01173-11SE19A     6.653629        0                                   ;
 S01157-11SE19A     8.064158        0                                   ;
 S01161-11SE19A     7.211413        0                                   ;
 S01187-11SE19A     6.66617         0                                   ;
 S01183-11SE19A     6.66617         0                                   ;
 S00281-11SE19B     4.095581        0                                   ;
 S01184-11SE19A     6.66617         0                                   ;
 S00282-11SE19B     3.88072         0                                   ;
 S01179-11SE19A     6.280466        0                                   ;
 S00294-11SE19B     4.187734        0                                   ;
 S00061-11SE20A     4.325434        0                                   ;
 S00063-11SE20A     4.325434        0                                   ;
 S00064-11SE20A     4.325434        0                                   ;
 S01239-11SE19A     7.22642         0                                   ;
 S01236-11SE19A     7.22642         0                                   ;
 S01232-11SE19A     7.22642         0                                   ;
 S00321-11SE19B     3.977825        0                                   ;
 S00325-11SE19B     4.011002        0                                   ;
 S01229-11SE19A     7.57453         0                                   ;
 S01228-11SE19A     7.57453         0                                   ;
 S00510-11SE20A     4.458939        0                                   ;
 S00514-11SE20A     5.345526        0                                   ;
 S01283-11SE19A     5.7             0                                   ;
 S00457-11SE20A     5.680056        0                                   ;
 S00463-11SE20A     4.801807        0                                   ;
 S01195-11SE19A     5.364159        0                                   ;
 S01290-11SE19A     5.471937        0                                   ;
 S00332-11SE19B     4.181943        0                                   ;
 S00491-11SE20A     5.02285         0                                   ;
 S00458-11SE20A     5.680056        0                                   ;
 S01291-11SE19A     5.471937        0                                   ;
 S00089-11SE20A     6.02059         0                                   ;
 S00339-11SE19B     4.181943        0                                   ;
 S00094-11SE20A     4.837917        0                                   ;
 S01197-11SE19A     5.710664        0                                   ;
 S00342-11SE19B     4.189532        0                                   ;
 S01220-11SE19A     6.398115        0                                   ;
 S01200-11SE19A     5.681108        0                                   ;
 S01206-11SE19A     5.848822        0                                   ;
 S01251-11SE19A     6.29238         0                                   ;
 S01225-11SE19A     5.549307        0                                   ;
 S01243-11SE19A     5.549307        0                                   ;
 S00101-11SE20A     5.098156        0                                   ;
 S00102-11SE20A     5.098156        0                                   ;
 S01248-11SE19A     5.48005         0                                   ;
 S00063-11SE14B     5.234317        0                                   ;
 S00073-11SE14A     4.694388        0                                   ;
 S00065-11SE14B     4.867948        0                                   ;
 S00067-11SE14B     4.830334        0                                   ;
 S00068-11SE14B     4.830334        0                                   ;
 S00070-11SE14B     4.830334        0                                   ;
 S01210-11SE19A     5.67019         0                                   ;
 S00577-11SE20A     5.285735        0                                   ;
 S00243-11SE19A     9.944092        0                                   ;
 S00373-11SE19B     4.324876        0                                   ;
 S00105-11SE20A     5.43965         0                                   ;
 S01259-11SE19A     5.181972        0                                   ;
 S01258-11SE19A     5.181972        0                                   ;
 S01260-11SE19A     5.181972        0                                   ;
 S01264-11SE19A     5.135199        0                                   ;
 S01265-11SE19A     5.135199        0                                   ;
 S01294-11SE19A     5.149885        0                                   ;
 S01305-11SE19A     5.703214        0                                   ;
 S00112-11SE20A     5.124232        0                                   ;
 S01302-11SE19A     5.239529        0                                   ;
 S00392-11SE19B     4.598153        0                                   ;
 S01296-11SE19A     5.239529        0                                   ;
 S00120-11SE20A     4.999841        0                                   ;
 S00122-11SE20A     4.978366        0                                   ;
 S00124-11SE20A     6.171558        0                                   ;
 S00494-11SE20A     5.263037        0                                   ;
 S00130-11SE20A     6.271999        0                                   ;
 S00133-11SE20A     5.424134        0                                   ;
 S00139-11SE20A     6.271999        0                                   ;
 S00496-11SE20A     5.784755        0                                   ;
 S00152-11SE20A     5.908623        0                                   ;
 S00342-11SE19A     4.370269        0                                   ;
 S00419-11SE19B     4.65114         0                                   ;
 S00153-11SE20A     5.950091        0                                   ;
 S00155-11SE20A     5.950091        0                                   ;
 S00157-11SE20A     5.545717        0                                   ;
 S00426-11SE19B     4.77            0                                   ;
 S00358-11SE19A     6.159899        0                                   ;
 S00161-11SE20A     6.129085        0                                   ;
 S00366-11SE19A     6.135765        0                                   ;
 S00168-11SE20A     5.612541        0                                   ;
 S00440-11SE19B     5.056453        0                                   ;
 S01311-11SE19A     5.325812        0                                   ;
 S00175-11SE20A     4.971873        0                                   ;
 S00177-11SE20A     5.819826        0                                   ;
 S00441-11SE20A     6.271378        0                                   ;
 S00075-11SE14B     3.961419        0                                   ;
 S00077-11SE14B     3.961419        0                                   ;
 S00078-11SE14B     3.961419        0                                   ;
 S00082-11SE14B     4.464377        0                                   ;
 S00179-11SE20A     5.819826        0                                   ;
 S00445-11SE19B     4.640646        0                                   ;
 S00377-11SE19A     6.497406        0                                   ;
 S00186-11SE20A     5.841045        0                                   ;
 S00190-11SE20A     5.645681        0                                   ;
 S00448-11SE19B     4.9             0                                   ;
 S00398-11SE19A     13.379601       0                                   ;
 S00196-11SE20A     5.84133         0                                   ;
 S00198-11SE20A     5.15            0                                   ;
 S00199-11SE20A     6.42191         0                                   ;
 S00452-11SE19B     4.9             0                                   ;
 S00203-11SE20A     6.753585        0                                   ;
 S00205-11SE20A     6.148111        0                                   ;
 S00409-11SE19A     5.686015        0                                   ;
 S00214-11SE20A     5.704885        0                                   ;
 S00216-11SE20A     5.780757        0                                   ;
 S00217-11SE20A     5.704885        0                                   ;
 S00429-11SE19A     6.373941        0                                   ;
 S00222-11SE20A     5.61215         0                                   ;
 S00224-11SE20A     8.061189        0                                   ;
 S00226-11SE20A     8.061189        0                                   ;
 S00229-11SE20A     5.776829        0                                   ;
 S00231-11SE20A     17.934673       0                                   ;
 S01108-11SE19A     5.49883         0                                   ;
 S01114-11SE19A     5.288011        0                                   ;
 S01109-11SE19A     5.49883         0                                   ;
 S00236-11SE20A     5.373444        0                                   ;
 S00007-11SE19C     7.800584        0                                   ;
 S00005-11SE20C     17.463721       0                                   ;
 S00007-11SE20C     17.463721       0                                   ;
 S00014-11SE19C     8.907995        0                                   ;
 S00411-11SE19C     6.511786        0                                   ;
 S00012-11SE20C     22.320948       0                                   ;
 S00014-11SE20C     22.320948       0                                   ;
 S00015-11SE20C     5.445291        0                                   ;
 S00017-11SE19C     8.043336        0                                   ;
 S00018-11SE19C     8.043336        0                                   ;
 S00404-11SE19C     8.053507        0                                   ;
 S00003-11SE19D     22.50944        0                                   ;
 S00026-11SE19C     6.081998        0                                   ;
 S00019-11SE20C     6.056536        0                                   ;
 S00005-11SE19D     22.50944        0                                   ;
 S00021-11SE20C     6.075931        0                                   ;
 S00402-11SE19C     9.54759         0                                   ;
 S00023-11SE20C     6.171196        0                                   ;
 S00403-11SE19C     9.54759         0                                   ;
 S00024-11SE20C     6.171196        0                                   ;
 S00027-11SE20C     6.171196        0                                   ;
 S00028-11SE20C     6.208962        0                                   ;
 S00115-11SE19A     22.967188       0                                   ;
 S01164-11SE19A     5.717341        0                                   ;
 S00213-11SE20A     5.780757        0                                   ;
 S00089-11SE14B     4.633335        0                                   ;
 S00092-11SE14B     4.817743        0                                   ;
 S00031-11SE19C     27.408313       0                                   ;
 S00371-11SE19C     25.870403       0                                   ;
 S00035-11SE19C     6.282621        0                                   ;
 S00032-11SE20C     6.407758        0                                   ;
 S00039-11SE19C     5.60582         0                                   ;
 S00396-11SE19C     10.694914       0                                   ;
 S00035-11SE20C     23.328642       0                                   ;
 S00038-11SE20C     6.454855        0                                   ;
 S00039-11SE20C     8.335208        0                                   ;
 S00042-11SE20C     8.335208        0                                   ;
 S00045-11SE19C     28.75797        0                                   ;
 S00047-11SE19C     28.75797        0                                   ;
 S00052-11SE19C     28.212291       0                                   ;
 S00393-11SE19C     20.871214       0                                   ;
 S00394-11SE19C     20.871214       0                                   ;
 S00062-11SE19C     9.364555        0                                   ;
 S00077-11SE19C     27.959144       0                                   ;
 S00078-11SE19C     24.178976       0                                   ;
 S00389-11SE19C     21.312895       0                                   ;
 S00083-11SE19C     27.959144       0                                   ;
 S00085-11SE19C     13.820456       0                                   ;
 S00087-11SE19C     13.820456       0                                   ;
 S00387-11SE19C     21.312895       0                                   ;
 S00088-11SE19C     27.959144       0                                   ;
 S00091-11SE19C     33.487174       0                                   ;
 S00095-11SE19C     11.812664       0                                   ;
 S00101-11SE19C     11.631421       0                                   ;
 S00046-11SE20C     23.037857       0                                   ;
 S00047-11SE20C     6.7             0                                   ;
 S00485-11SE19C     16.129144       0                                   ;
 S00486-11SE19C     16.129144       0                                   ;
 S00053-11SE20C     6.63122         0                                   ;
 S00110-11SE19C     30.920272       0                                   ;
 S00115-11SE19C     13.861563       0                                   ;
 S00138-11SE19C     39.1            0                                   ;
 S00141-11SE19C     39.1            0                                   ;
 S00059-11SE20C     23.442009       0                                   ;
 S00061-11SE20C     23.081644       0                                   ;
 S00064-11SE20C     6.617744        0                                   ;
 S00150-11SE19C     17.079722       0                                   ;
 S00156-11SE19C     53.281156       0                                   ;
 S00161-11SE19C     67.909848       0                                   ;
 S00162-11SE19C     67.909848       0                                   ;
 S00165-11SE19C     70.744841       0                                   ;
 S00167-11SE19C     69.508852       0                                   ;
 S00168-11SE19C     67.584393       0                                   ;
 S00465-11SE19C     69.508852       0                                   ;
 S00172-11SE19C     69.332767       0                                   ;
 S00097-11SE14B     5.371238        0                                   ;
 S00099-11SE14B     4.9             0                                   ;
 S00104-11SE14B     5.353348        0                                   ;
 S00169-11SE09C     5.025847        0                                   ;
 S00110-11SE14B     4.911798        0                                   ;
 S00115-11SE14B     4.456554        0                                   ;
 S00116-11SE14B     5.407395        0                                   ;
 S00117-11SE14B     4.456554        0                                   ;
 S00120-11SE14B     5.407395        0                                   ;
 S00123-11SE14B     4.465268        0                                   ;
 S00115-11SE14A     5.919827        0                                   ;
 S00005-11SE14A     7.902418        0                                   ;
 S00002-11SE14B     4.62779         0                                   ;
 S00126-11SE14B     5.014398        0                                   ;
 S00101-11SE14A     11.155466       0                                   ;
 S00130-11SE14B     5.494991        0                                   ;